*SPEF "ieee 1481-1999"
*DESIGN "iiitb_vm"
*DATE "11:11:11 Fri 11 11, 1111"
*VENDOR "OpenRCX"
*PROGRAM "Parallel Extraction"
*VERSION "1.0"
*DESIGN_FLOW "NAME_SCOPE LOCAL" "PIN_CAP NONE"
*DIVIDER /
*DELIMITER :
*BUS_DELIMITER []
*T_UNIT 1 NS
*C_UNIT 1 PF
*R_UNIT 1 OHM
*L_UNIT 1 HENRY

*NAME_MAP
*3 change[0]
*4 change[1]
*5 clock
*6 in[0]
*7 in[1]
*8 out
*9 reset
*10 _00_
*11 _01_
*12 _02_
*13 _03_
*14 _04_
*15 _05_
*16 _06_
*17 _07_
*18 _08_
*19 _09_
*20 _10_
*21 _11_
*22 _12_
*23 _13_
*24 _14_
*25 _15_
*26 _16_
*27 _17_
*28 _18_
*29 _19_
*30 c_state\[0\]
*31 c_state\[1\]
*32 c_state\[2\]
*33 c_state\[3\]
*34 c_state\[4\]
*35 c_state\[5\]
*36 c_state\[6\]
*37 net1
*38 net2
*39 net3
*40 net4
*41 net5
*42 net6
*43 net7
*44 FILLER_0_105
*45 FILLER_0_111
*46 FILLER_0_113
*47 FILLER_0_125
*48 FILLER_0_137
*49 FILLER_0_141
*50 FILLER_0_153
*51 FILLER_0_161
*52 FILLER_0_21
*53 FILLER_0_27
*54 FILLER_0_29
*55 FILLER_0_3
*56 FILLER_0_41
*57 FILLER_0_53
*58 FILLER_0_57
*59 FILLER_0_69
*60 FILLER_0_81
*61 FILLER_0_85
*62 FILLER_0_9
*63 FILLER_0_97
*64 FILLER_10_109
*65 FILLER_10_121
*66 FILLER_10_133
*67 FILLER_10_139
*68 FILLER_10_141
*69 FILLER_10_15
*70 FILLER_10_159
*71 FILLER_10_163
*72 FILLER_10_27
*73 FILLER_10_29
*74 FILLER_10_3
*75 FILLER_10_41
*76 FILLER_10_53
*77 FILLER_10_65
*78 FILLER_10_77
*79 FILLER_10_83
*80 FILLER_10_85
*81 FILLER_10_97
*82 FILLER_11_105
*83 FILLER_11_111
*84 FILLER_11_113
*85 FILLER_11_125
*86 FILLER_11_137
*87 FILLER_11_149
*88 FILLER_11_15
*89 FILLER_11_161
*90 FILLER_11_27
*91 FILLER_11_3
*92 FILLER_11_39
*93 FILLER_11_51
*94 FILLER_11_55
*95 FILLER_11_57
*96 FILLER_11_69
*97 FILLER_11_81
*98 FILLER_11_93
*99 FILLER_12_109
*100 FILLER_12_121
*101 FILLER_12_133
*102 FILLER_12_139
*103 FILLER_12_141
*104 FILLER_12_15
*105 FILLER_12_153
*106 FILLER_12_161
*107 FILLER_12_27
*108 FILLER_12_29
*109 FILLER_12_3
*110 FILLER_12_41
*111 FILLER_12_53
*112 FILLER_12_65
*113 FILLER_12_77
*114 FILLER_12_83
*115 FILLER_12_85
*116 FILLER_12_97
*117 FILLER_13_105
*118 FILLER_13_11
*119 FILLER_13_111
*120 FILLER_13_113
*121 FILLER_13_125
*122 FILLER_13_137
*123 FILLER_13_149
*124 FILLER_13_16
*125 FILLER_13_161
*126 FILLER_13_28
*127 FILLER_13_3
*128 FILLER_13_40
*129 FILLER_13_52
*130 FILLER_13_57
*131 FILLER_13_69
*132 FILLER_13_81
*133 FILLER_13_93
*134 FILLER_14_108
*135 FILLER_14_116
*136 FILLER_14_134
*137 FILLER_14_141
*138 FILLER_14_15
*139 FILLER_14_153
*140 FILLER_14_161
*141 FILLER_14_27
*142 FILLER_14_29
*143 FILLER_14_3
*144 FILLER_14_41
*145 FILLER_14_53
*146 FILLER_14_65
*147 FILLER_14_77
*148 FILLER_14_83
*149 FILLER_14_85
*150 FILLER_14_91
*151 FILLER_15_10
*152 FILLER_15_105
*153 FILLER_15_111
*154 FILLER_15_113
*155 FILLER_15_125
*156 FILLER_15_137
*157 FILLER_15_149
*158 FILLER_15_161
*159 FILLER_15_22
*160 FILLER_15_3
*161 FILLER_15_34
*162 FILLER_15_46
*163 FILLER_15_54
*164 FILLER_15_57
*165 FILLER_15_69
*166 FILLER_15_81
*167 FILLER_15_93
*168 FILLER_16_110
*169 FILLER_16_122
*170 FILLER_16_134
*171 FILLER_16_141
*172 FILLER_16_153
*173 FILLER_16_161
*174 FILLER_16_21
*175 FILLER_16_27
*176 FILLER_16_29
*177 FILLER_16_3
*178 FILLER_16_41
*179 FILLER_16_53
*180 FILLER_16_65
*181 FILLER_16_77
*182 FILLER_16_83
*183 FILLER_16_85
*184 FILLER_16_9
*185 FILLER_16_97
*186 FILLER_17_105
*187 FILLER_17_111
*188 FILLER_17_113
*189 FILLER_17_125
*190 FILLER_17_137
*191 FILLER_17_149
*192 FILLER_17_15
*193 FILLER_17_161
*194 FILLER_17_27
*195 FILLER_17_3
*196 FILLER_17_39
*197 FILLER_17_51
*198 FILLER_17_55
*199 FILLER_17_57
*200 FILLER_17_69
*201 FILLER_17_81
*202 FILLER_17_93
*203 FILLER_18_100
*204 FILLER_18_112
*205 FILLER_18_124
*206 FILLER_18_136
*207 FILLER_18_141
*208 FILLER_18_15
*209 FILLER_18_150
*210 FILLER_18_162
*211 FILLER_18_27
*212 FILLER_18_29
*213 FILLER_18_3
*214 FILLER_18_41
*215 FILLER_18_53
*216 FILLER_18_65
*217 FILLER_18_77
*218 FILLER_18_83
*219 FILLER_18_85
*220 FILLER_18_93
*221 FILLER_19_105
*222 FILLER_19_111
*223 FILLER_19_113
*224 FILLER_19_125
*225 FILLER_19_137
*226 FILLER_19_145
*227 FILLER_19_15
*228 FILLER_19_154
*229 FILLER_19_162
*230 FILLER_19_27
*231 FILLER_19_3
*232 FILLER_19_39
*233 FILLER_19_51
*234 FILLER_19_55
*235 FILLER_19_57
*236 FILLER_19_69
*237 FILLER_19_81
*238 FILLER_19_93
*239 FILLER_1_105
*240 FILLER_1_111
*241 FILLER_1_113
*242 FILLER_1_125
*243 FILLER_1_137
*244 FILLER_1_149
*245 FILLER_1_15
*246 FILLER_1_157
*247 FILLER_1_162
*248 FILLER_1_27
*249 FILLER_1_3
*250 FILLER_1_39
*251 FILLER_1_51
*252 FILLER_1_55
*253 FILLER_1_57
*254 FILLER_1_69
*255 FILLER_1_81
*256 FILLER_1_93
*257 FILLER_20_109
*258 FILLER_20_121
*259 FILLER_20_129
*260 FILLER_20_134
*261 FILLER_20_141
*262 FILLER_20_15
*263 FILLER_20_153
*264 FILLER_20_161
*265 FILLER_20_27
*266 FILLER_20_29
*267 FILLER_20_3
*268 FILLER_20_41
*269 FILLER_20_53
*270 FILLER_20_65
*271 FILLER_20_77
*272 FILLER_20_83
*273 FILLER_20_85
*274 FILLER_20_97
*275 FILLER_21_105
*276 FILLER_21_111
*277 FILLER_21_113
*278 FILLER_21_125
*279 FILLER_21_137
*280 FILLER_21_149
*281 FILLER_21_15
*282 FILLER_21_157
*283 FILLER_21_162
*284 FILLER_21_27
*285 FILLER_21_3
*286 FILLER_21_39
*287 FILLER_21_51
*288 FILLER_21_55
*289 FILLER_21_57
*290 FILLER_21_69
*291 FILLER_21_81
*292 FILLER_21_93
*293 FILLER_22_109
*294 FILLER_22_121
*295 FILLER_22_133
*296 FILLER_22_139
*297 FILLER_22_141
*298 FILLER_22_15
*299 FILLER_22_153
*300 FILLER_22_161
*301 FILLER_22_27
*302 FILLER_22_29
*303 FILLER_22_3
*304 FILLER_22_41
*305 FILLER_22_53
*306 FILLER_22_65
*307 FILLER_22_77
*308 FILLER_22_83
*309 FILLER_22_85
*310 FILLER_22_97
*311 FILLER_23_105
*312 FILLER_23_111
*313 FILLER_23_113
*314 FILLER_23_121
*315 FILLER_23_129
*316 FILLER_23_141
*317 FILLER_23_15
*318 FILLER_23_153
*319 FILLER_23_161
*320 FILLER_23_27
*321 FILLER_23_3
*322 FILLER_23_39
*323 FILLER_23_51
*324 FILLER_23_55
*325 FILLER_23_57
*326 FILLER_23_69
*327 FILLER_23_81
*328 FILLER_23_93
*329 FILLER_24_111
*330 FILLER_24_119
*331 FILLER_24_137
*332 FILLER_24_141
*333 FILLER_24_15
*334 FILLER_24_153
*335 FILLER_24_161
*336 FILLER_24_24
*337 FILLER_24_29
*338 FILLER_24_3
*339 FILLER_24_41
*340 FILLER_24_53
*341 FILLER_24_65
*342 FILLER_24_75
*343 FILLER_24_83
*344 FILLER_24_85
*345 FILLER_24_91
*346 FILLER_24_99
*347 FILLER_25_105
*348 FILLER_25_111
*349 FILLER_25_113
*350 FILLER_25_120
*351 FILLER_25_132
*352 FILLER_25_144
*353 FILLER_25_15
*354 FILLER_25_156
*355 FILLER_25_27
*356 FILLER_25_3
*357 FILLER_25_31
*358 FILLER_25_35
*359 FILLER_25_47
*360 FILLER_25_55
*361 FILLER_25_57
*362 FILLER_25_69
*363 FILLER_25_81
*364 FILLER_25_93
*365 FILLER_26_109
*366 FILLER_26_121
*367 FILLER_26_133
*368 FILLER_26_139
*369 FILLER_26_141
*370 FILLER_26_15
*371 FILLER_26_153
*372 FILLER_26_161
*373 FILLER_26_27
*374 FILLER_26_29
*375 FILLER_26_3
*376 FILLER_26_41
*377 FILLER_26_53
*378 FILLER_26_65
*379 FILLER_26_77
*380 FILLER_26_83
*381 FILLER_26_85
*382 FILLER_26_97
*383 FILLER_27_109
*384 FILLER_27_113
*385 FILLER_27_121
*386 FILLER_27_126
*387 FILLER_27_138
*388 FILLER_27_14
*389 FILLER_27_141
*390 FILLER_27_153
*391 FILLER_27_161
*392 FILLER_27_26
*393 FILLER_27_29
*394 FILLER_27_3
*395 FILLER_27_41
*396 FILLER_27_53
*397 FILLER_27_57
*398 FILLER_27_69
*399 FILLER_27_81
*400 FILLER_27_85
*401 FILLER_27_9
*402 FILLER_27_97
*403 FILLER_2_109
*404 FILLER_2_121
*405 FILLER_2_133
*406 FILLER_2_139
*407 FILLER_2_141
*408 FILLER_2_15
*409 FILLER_2_153
*410 FILLER_2_161
*411 FILLER_2_27
*412 FILLER_2_29
*413 FILLER_2_3
*414 FILLER_2_41
*415 FILLER_2_49
*416 FILLER_2_55
*417 FILLER_2_67
*418 FILLER_2_79
*419 FILLER_2_83
*420 FILLER_2_85
*421 FILLER_2_97
*422 FILLER_3_103
*423 FILLER_3_111
*424 FILLER_3_113
*425 FILLER_3_125
*426 FILLER_3_137
*427 FILLER_3_149
*428 FILLER_3_15
*429 FILLER_3_161
*430 FILLER_3_27
*431 FILLER_3_3
*432 FILLER_3_35
*433 FILLER_3_53
*434 FILLER_3_57
*435 FILLER_3_69
*436 FILLER_3_75
*437 FILLER_3_79
*438 FILLER_3_91
*439 FILLER_4_109
*440 FILLER_4_121
*441 FILLER_4_133
*442 FILLER_4_139
*443 FILLER_4_141
*444 FILLER_4_15
*445 FILLER_4_153
*446 FILLER_4_161
*447 FILLER_4_27
*448 FILLER_4_29
*449 FILLER_4_3
*450 FILLER_4_51
*451 FILLER_4_63
*452 FILLER_4_75
*453 FILLER_4_83
*454 FILLER_4_85
*455 FILLER_4_97
*456 FILLER_5_100
*457 FILLER_5_113
*458 FILLER_5_125
*459 FILLER_5_137
*460 FILLER_5_149
*461 FILLER_5_15
*462 FILLER_5_161
*463 FILLER_5_27
*464 FILLER_5_3
*465 FILLER_5_39
*466 FILLER_5_51
*467 FILLER_5_55
*468 FILLER_5_57
*469 FILLER_5_69
*470 FILLER_5_76
*471 FILLER_5_88
*472 FILLER_6_101
*473 FILLER_6_107
*474 FILLER_6_119
*475 FILLER_6_131
*476 FILLER_6_139
*477 FILLER_6_141
*478 FILLER_6_15
*479 FILLER_6_153
*480 FILLER_6_161
*481 FILLER_6_27
*482 FILLER_6_29
*483 FILLER_6_3
*484 FILLER_6_41
*485 FILLER_6_53
*486 FILLER_6_65
*487 FILLER_6_77
*488 FILLER_6_83
*489 FILLER_6_85
*490 FILLER_6_97
*491 FILLER_7_105
*492 FILLER_7_111
*493 FILLER_7_113
*494 FILLER_7_118
*495 FILLER_7_130
*496 FILLER_7_142
*497 FILLER_7_15
*498 FILLER_7_154
*499 FILLER_7_162
*500 FILLER_7_27
*501 FILLER_7_3
*502 FILLER_7_39
*503 FILLER_7_51
*504 FILLER_7_55
*505 FILLER_7_57
*506 FILLER_7_69
*507 FILLER_7_81
*508 FILLER_7_93
*509 FILLER_8_103
*510 FILLER_8_115
*511 FILLER_8_122
*512 FILLER_8_134
*513 FILLER_8_141
*514 FILLER_8_15
*515 FILLER_8_153
*516 FILLER_8_161
*517 FILLER_8_20
*518 FILLER_8_29
*519 FILLER_8_3
*520 FILLER_8_41
*521 FILLER_8_53
*522 FILLER_8_65
*523 FILLER_8_77
*524 FILLER_8_83
*525 FILLER_8_85
*526 FILLER_8_97
*527 FILLER_9_106
*528 FILLER_9_113
*529 FILLER_9_125
*530 FILLER_9_137
*531 FILLER_9_149
*532 FILLER_9_15
*533 FILLER_9_161
*534 FILLER_9_27
*535 FILLER_9_3
*536 FILLER_9_39
*537 FILLER_9_51
*538 FILLER_9_55
*539 FILLER_9_57
*540 FILLER_9_75
*541 FILLER_9_82
*542 FILLER_9_94
*543 PHY_0
*544 PHY_1
*545 PHY_10
*546 PHY_11
*547 PHY_12
*548 PHY_13
*549 PHY_14
*550 PHY_15
*551 PHY_16
*552 PHY_17
*553 PHY_18
*554 PHY_19
*555 PHY_2
*556 PHY_20
*557 PHY_21
*558 PHY_22
*559 PHY_23
*560 PHY_24
*561 PHY_25
*562 PHY_26
*563 PHY_27
*564 PHY_28
*565 PHY_29
*566 PHY_3
*567 PHY_30
*568 PHY_31
*569 PHY_32
*570 PHY_33
*571 PHY_34
*572 PHY_35
*573 PHY_36
*574 PHY_37
*575 PHY_38
*576 PHY_39
*577 PHY_4
*578 PHY_40
*579 PHY_41
*580 PHY_42
*581 PHY_43
*582 PHY_44
*583 PHY_45
*584 PHY_46
*585 PHY_47
*586 PHY_48
*587 PHY_49
*588 PHY_5
*589 PHY_50
*590 PHY_51
*591 PHY_52
*592 PHY_53
*593 PHY_54
*594 PHY_55
*595 PHY_6
*596 PHY_7
*597 PHY_8
*598 PHY_9
*599 TAP_100
*600 TAP_101
*601 TAP_102
*602 TAP_103
*603 TAP_104
*604 TAP_105
*605 TAP_106
*606 TAP_107
*607 TAP_108
*608 TAP_109
*609 TAP_110
*610 TAP_111
*611 TAP_112
*612 TAP_113
*613 TAP_114
*614 TAP_115
*615 TAP_116
*616 TAP_117
*617 TAP_118
*618 TAP_119
*619 TAP_120
*620 TAP_121
*621 TAP_122
*622 TAP_123
*623 TAP_124
*624 TAP_125
*625 TAP_126
*626 TAP_127
*627 TAP_128
*628 TAP_129
*629 TAP_130
*630 TAP_56
*631 TAP_57
*632 TAP_58
*633 TAP_59
*634 TAP_60
*635 TAP_61
*636 TAP_62
*637 TAP_63
*638 TAP_64
*639 TAP_65
*640 TAP_66
*641 TAP_67
*642 TAP_68
*643 TAP_69
*644 TAP_70
*645 TAP_71
*646 TAP_72
*647 TAP_73
*648 TAP_74
*649 TAP_75
*650 TAP_76
*651 TAP_77
*652 TAP_78
*653 TAP_79
*654 TAP_80
*655 TAP_81
*656 TAP_82
*657 TAP_83
*658 TAP_84
*659 TAP_85
*660 TAP_86
*661 TAP_87
*662 TAP_88
*663 TAP_89
*664 TAP_90
*665 TAP_91
*666 TAP_92
*667 TAP_93
*668 TAP_94
*669 TAP_95
*670 TAP_96
*671 TAP_97
*672 TAP_98
*673 TAP_99
*674 _20_
*675 _21_
*676 _22_
*677 _24_
*678 _25_
*679 _26_
*680 _27_
*681 _28_
*682 _29_
*683 _30_
*684 _31_
*685 _32_
*686 _33_
*687 _34_
*688 _35_
*689 _36_
*690 _37_
*691 _38_
*692 _39_
*693 _40_
*694 _41_
*695 _42_
*696 _43_
*697 _44_
*698 _45_
*699 _46_
*700 _47_
*701 _48_
*702 _49_
*703 input1
*704 input2
*705 input3
*706 input4
*707 output5
*708 output6
*709 output7

*PORTS
change[0] O
change[1] O
clock I
in[0] I
in[1] I
out O
reset I

*D_NET *3 0.000455034
*CONN
*P change[0] O
*I *707:X O *D sky130_fd_sc_hd__buf_2
*CAP
1 change[0] 0.000227517
2 *707:X 0.000227517
*RES
1 *707:X change[0] 18.267 
*END

*D_NET *4 0.000737255
*CONN
*P change[1] O
*I *708:X O *D sky130_fd_sc_hd__buf_2
*CAP
1 change[1] 0.000368627
2 *708:X 0.000368627
3 change[1] *42:11 0
*RES
1 *708:X change[1] 22.05 
*END

*D_NET *5 0.000508561
*CONN
*P clock I
*I *703:A I *D sky130_fd_sc_hd__buf_2
*CAP
1 clock 0.00025428
2 *703:A 0.00025428
3 *703:A *18:17 0
*RES
1 clock *703:A 18.8741 
*END

*D_NET *6 0.00135438
*CONN
*P in[0] I
*I *704:A I *D sky130_fd_sc_hd__clkbuf_2
*CAP
1 in[0] 0.000677189
2 *704:A 0.000677189
*RES
1 in[0] *704:A 28.5143 
*END

*D_NET *7 0.000777886
*CONN
*P in[1] I
*I *705:A I *D sky130_fd_sc_hd__clkbuf_2
*CAP
1 in[1] 0.000388943
2 *705:A 0.000388943
*RES
1 in[1] *705:A 22.55 
*END

*D_NET *8 0.00079066
*CONN
*P out O
*I *709:X O *D sky130_fd_sc_hd__buf_2
*CAP
1 out 0.00039533
2 *709:X 0.00039533
3 out *709:A 0
*RES
1 *709:X out 22.6571 
*END

*D_NET *9 0.000535346
*CONN
*P reset I
*I *706:A I *D sky130_fd_sc_hd__clkbuf_2
*CAP
1 reset 0.000267673
2 *706:A 0.000267673
*RES
1 reset *706:A 19.1777 
*END

*D_NET *10 0.00423522
*CONN
*I *698:D I *D sky130_fd_sc_hd__dfxtp_1
*I *695:X O *D sky130_fd_sc_hd__clkbuf_1
*CAP
1 *698:D 0
2 *695:X 0.000242142
3 *10:11 0.00187547
4 *10:7 0.00211761
5 *10:11 *674:C 0
6 *10:11 *676:A2 0
7 *10:11 *33:9 0
8 *10:11 *34:8 0
9 *10:11 *34:24 0
10 *10:11 *40:18 0
*RES
1 *695:X *10:7 18.8536 
2 *10:7 *10:11 46.9152 
3 *10:11 *698:D 9.3 
*END

*D_NET *11 0.00407459
*CONN
*I *699:D I *D sky130_fd_sc_hd__dfxtp_1
*I *693:X O *D sky130_fd_sc_hd__clkbuf_1
*CAP
1 *699:D 0.000869102
2 *693:X 0.00116819
3 *11:8 0.00203729
4 *699:D *701:D 0
5 *699:D *37:52 0
6 *11:8 *684:A 0
7 *11:8 *685:A 0
8 *11:8 *693:A 0
9 *11:8 *13:8 0
*RES
1 *693:X *11:8 44.8357 
2 *11:8 *699:D 27.5009 
*END

*D_NET *12 0.00265051
*CONN
*I *700:D I *D sky130_fd_sc_hd__dfxtp_1
*I *691:X O *D sky130_fd_sc_hd__clkbuf_1
*CAP
1 *700:D 0
2 *691:X 0.00132525
3 *12:11 0.00132525
4 *12:11 *700:CLK 0
5 *12:11 *22:14 0
6 *12:11 *22:26 0
7 *12:11 *32:12 0
8 *12:11 *32:16 0
9 *12:11 *34:7 0
*RES
1 *691:X *12:11 47.858 
2 *12:11 *700:D 9.3 
*END

*D_NET *13 0.00432282
*CONN
*I *701:D I *D sky130_fd_sc_hd__dfxtp_1
*I *689:X O *D sky130_fd_sc_hd__clkbuf_1
*CAP
1 *701:D 0.000491343
2 *689:X 0.00167007
3 *13:8 0.00216141
4 *701:D *37:46 0
5 *13:8 *685:A 0
6 *13:8 *16:6 0
7 *699:D *701:D 0
8 *11:8 *13:8 0
*RES
1 *689:X *13:8 49.8714 
2 *13:8 *701:D 24.0545 
*END

*D_NET *14 0.00532376
*CONN
*I *696:D I *D sky130_fd_sc_hd__dfxtp_1
*I *677:X O *D sky130_fd_sc_hd__a211o_1
*CAP
1 *696:D 0.00123189
2 *677:X 0.00142999
3 *14:8 0.00266188
4 *14:8 *683:B2 0
5 *14:8 *692:A 0
6 *14:8 *18:24 0
7 *14:8 *31:11 0
8 *14:8 *31:24 0
*RES
1 *677:X *14:8 46.1393 
2 *14:8 *696:D 39.5723 
*END

*D_NET *15 0.0075902
*CONN
*I *697:D I *D sky130_fd_sc_hd__dfxtp_1
*I *683:X O *D sky130_fd_sc_hd__a22o_1
*CAP
1 *697:D 7.91454e-06
2 *683:X 0.00177714
3 *15:8 0.00201797
4 *15:7 0.00201005
5 *15:5 0.00177714
6 *15:5 *683:A2 0
7 *15:5 *683:B1 0
8 *15:5 *683:B2 0
9 *15:5 *23:19 0
10 *15:8 *21:8 0
11 *15:8 *37:8 0
12 *15:8 *37:12 0
13 *15:8 *37:19 0
*RES
1 *683:X *15:5 46.3893 
2 *15:5 *15:7 4.5 
3 *15:7 *15:8 45.6607 
4 *15:8 *697:D 13.9652 
*END

*D_NET *16 0.00324525
*CONN
*I *702:D I *D sky130_fd_sc_hd__dfxtp_1
*I *682:X O *D sky130_fd_sc_hd__a22o_1
*CAP
1 *702:D 6.69527e-05
2 *682:X 0.00155567
3 *16:6 0.00162263
4 *702:D *702:CLK 0
5 *16:6 *36:8 0
6 *13:8 *16:6 0
*RES
1 *682:X *16:6 49.1393 
2 *16:6 *702:D 15.1973 
*END

*D_NET *17 0.00543848
*CONN
*I *690:A I *D sky130_fd_sc_hd__and2_1
*I *682:A1 I *D sky130_fd_sc_hd__a22o_1
*I *677:A1 I *D sky130_fd_sc_hd__a211o_1
*I *674:X O *D sky130_fd_sc_hd__or4_2
*CAP
1 *690:A 0
2 *682:A1 0.00102704
3 *677:A1 0.00054096
4 *674:X 0.00106654
5 *17:11 0.0016527
6 *17:7 0.00115124
7 *677:A1 *690:B 0
8 *677:A1 *18:24 0
9 *682:A1 *682:B1 0
10 *682:A1 *690:B 0
11 *17:7 *674:A 0
12 *17:7 *674:C 0
13 *17:7 *691:A 0
*RES
1 *674:X *17:7 31.6214 
2 *17:7 *17:11 6.26786 
3 *17:11 *677:A1 25.4964 
4 *17:11 *682:A1 36.3536 
5 *17:7 *690:A 9.3 
*END

*D_NET *18 0.0070438
*CONN
*I *694:C I *D sky130_fd_sc_hd__and3_1
*I *677:A2 I *D sky130_fd_sc_hd__a211o_1
*I *688:C I *D sky130_fd_sc_hd__and3_1
*I *675:Y O *D sky130_fd_sc_hd__nor2_1
*CAP
1 *694:C 0.00110559
2 *677:A2 0
3 *688:C 9.41189e-06
4 *675:Y 0.000363147
5 *18:24 0.0019581
6 *18:17 0.00314934
7 *18:8 0.000458212
8 *694:C *675:B 0
9 *694:C *688:A 0
10 *18:8 *675:B 0
11 *18:8 *38:9 0
12 *18:17 *675:B 0
13 *18:24 *37:8 0
14 *677:A1 *18:24 0
15 *703:A *18:17 0
16 *14:8 *18:24 0
*RES
1 *675:Y *18:8 21.7821 
2 *18:8 *688:C 13.9964 
3 *18:8 *18:17 1.94643 
4 *18:17 *18:24 45.4286 
5 *18:24 *677:A2 9.3 
6 *18:17 *694:C 38.3893 
*END

*D_NET *19 0.0020274
*CONN
*I *677:B1 I *D sky130_fd_sc_hd__a211o_1
*I *676:X O *D sky130_fd_sc_hd__a21o_1
*CAP
1 *677:B1 0
2 *676:X 0.0010137
3 *19:9 0.0010137
4 *19:9 *676:A1 0
5 *19:9 *25:6 0
6 *19:9 *38:31 0
*RES
1 *676:X *19:9 40.9607 
2 *19:9 *677:B1 9.3 
*END

*D_NET *21 0.00691988
*CONN
*I *679:A I *D sky130_fd_sc_hd__clkbuf_1
*I *678:X O *D sky130_fd_sc_hd__or2_1
*CAP
1 *679:A 0
2 *678:X 0.00138355
3 *21:8 0.00207639
4 *21:7 0.00345994
5 *21:7 *684:A 0
6 *21:7 *31:11 0
7 *15:8 *21:8 0
*RES
1 *678:X *21:7 42.675 
2 *21:7 *21:8 47.1786 
3 *21:8 *679:A 13.8 
*END

*D_NET *22 0.00887898
*CONN
*I *682:A2 I *D sky130_fd_sc_hd__a22o_1
*I *683:A2 I *D sky130_fd_sc_hd__a22o_1
*I *692:B I *D sky130_fd_sc_hd__and2_1
*I *680:X O *D sky130_fd_sc_hd__and3b_1
*CAP
1 *682:A2 0
2 *683:A2 4.53482e-05
3 *692:B 0.000867605
4 *680:X 0.000143745
5 *22:43 0.00144156
6 *22:26 0.00218593
7 *22:14 0.00210981
8 *22:7 0.00208498
9 *683:A2 *683:A1 0
10 *692:B *676:A1 0
11 *692:B *692:A 0
12 *22:7 *680:B 0
13 *22:14 *674:C 0
14 *22:14 *32:16 0
15 *22:14 *33:9 0
16 *22:26 *32:12 0
17 *22:43 *686:A 0
18 *22:43 *34:24 0
19 *22:43 *39:21 0
20 *22:43 *40:26 0
21 *22:43 *43:8 0
22 *12:11 *22:14 0
23 *12:11 *22:26 0
24 *15:5 *683:A2 0
*RES
1 *680:X *22:7 16.8 
2 *22:7 *22:14 32.7143 
3 *22:14 *692:B 27.4071 
4 *22:7 *22:26 20 
5 *22:26 *683:A2 10.2464 
6 *22:26 *22:43 48.5714 
7 *22:43 *682:A2 9.3 
*END

*D_NET *23 0.00337519
*CONN
*I *683:B1 I *D sky130_fd_sc_hd__a22o_1
*I *690:B I *D sky130_fd_sc_hd__and2_1
*I *682:B1 I *D sky130_fd_sc_hd__a22o_1
*I *681:X O *D sky130_fd_sc_hd__and3b_1
*CAP
1 *683:B1 0.000534338
2 *690:B 0.000568208
3 *682:B1 0.000418615
4 *681:X 0
5 *23:19 0.00126898
6 *23:4 0.000585048
7 *682:B1 *34:24 0
8 *683:B1 *683:B2 0
9 *690:B *683:B2 0
10 *23:19 *34:24 0
11 *677:A1 *690:B 0
12 *682:A1 *682:B1 0
13 *682:A1 *690:B 0
14 *15:5 *683:B1 0
15 *15:5 *23:19 0
*RES
1 *681:X *23:4 9.3 
2 *23:4 *682:B1 18.0679 
3 *23:4 *23:19 12.6429 
4 *23:19 *690:B 31.175 
5 *23:19 *683:B1 20.5143 
*END

*D_NET *24 0.00115151
*CONN
*I *685:A I *D sky130_fd_sc_hd__clkbuf_1
*I *684:X O *D sky130_fd_sc_hd__or2_1
*CAP
1 *685:A 0.000575754
2 *684:X 0.000575754
3 *685:A *684:A 0
4 *685:A *693:A 0
5 *11:8 *685:A 0
6 *13:8 *685:A 0
*RES
1 *684:X *685:A 40.3679 
*END

*D_NET *25 0.00744516
*CONN
*I *687:A I *D sky130_fd_sc_hd__clkbuf_1
*I *686:X O *D sky130_fd_sc_hd__clkbuf_1
*CAP
1 *687:A 0.00128515
2 *686:X 0
3 *25:6 0.00372258
4 *25:5 0.00243743
5 *687:A *42:11 0
6 *25:6 *676:A1 0
7 *25:6 *676:B1 0
8 *25:6 *681:C 0
9 *25:6 *691:A 0
10 *25:6 *698:CLK 0
11 *25:6 *38:31 0
12 *19:9 *25:6 0
*RES
1 *686:X *25:5 13.8 
2 *25:5 *25:6 55.375 
3 *25:6 *687:A 40.6214 
*END

*D_NET *26 0.00178138
*CONN
*I *689:A I *D sky130_fd_sc_hd__clkbuf_1
*I *688:X O *D sky130_fd_sc_hd__and3_1
*CAP
1 *689:A 0.000890688
2 *688:X 0.000890688
3 *689:A *675:B 0
4 *689:A *688:B 0
5 *689:A *29:8 0
6 *689:A *38:8 0
*RES
1 *688:X *689:A 47.5286 
*END

*D_NET *27 0.0016419
*CONN
*I *691:A I *D sky130_fd_sc_hd__clkbuf_1
*I *690:X O *D sky130_fd_sc_hd__and2_1
*CAP
1 *691:A 0.00082095
2 *690:X 0.00082095
3 *691:A *681:C 0
4 *691:A *38:31 0
5 *17:7 *691:A 0
6 *25:6 *691:A 0
*RES
1 *690:X *691:A 45.0643 
*END

*D_NET *28 0.00187767
*CONN
*I *693:A I *D sky130_fd_sc_hd__clkbuf_1
*I *692:X O *D sky130_fd_sc_hd__and2_1
*CAP
1 *693:A 0.000938834
2 *692:X 0.000938834
3 *685:A *693:A 0
4 *11:8 *693:A 0
*RES
1 *692:X *693:A 48.1179 
*END

*D_NET *29 0.00719812
*CONN
*I *695:A I *D sky130_fd_sc_hd__clkbuf_1
*I *694:X O *D sky130_fd_sc_hd__and3_1
*CAP
1 *695:A 0.00181649
2 *694:X 0
3 *29:8 0.00359906
4 *29:5 0.00178257
5 *29:8 *675:B 0
6 *29:8 *688:A 0
7 *689:A *29:8 0
*RES
1 *694:X *29:5 13.8 
2 *29:5 *29:8 45 
3 *29:8 *695:A 47.2107 
*END

*D_NET *30 0.00709002
*CONN
*I *674:B I *D sky130_fd_sc_hd__or4_2
*I *696:Q O *D sky130_fd_sc_hd__dfxtp_1
*CAP
1 *674:B 0
2 *696:Q 0
3 *30:14 0.00184243
4 *30:8 0.00354501
5 *30:5 0.00170258
6 *30:8 *688:B 0
7 *30:8 *36:8 0
8 *30:8 *37:8 0
9 *30:8 *37:12 0
10 *30:8 *37:19 0
11 *30:14 *680:A_N 0
12 *30:14 *680:B 0
13 *30:14 *681:C 0
14 *30:14 *32:12 0
15 *30:14 *40:8 0
*RES
1 *696:Q *30:5 13.8 
2 *30:5 *30:8 43.1786 
3 *30:8 *30:14 47.5357 
4 *30:14 *674:B 9.3 
*END

*D_NET *31 0.00690302
*CONN
*I *674:A I *D sky130_fd_sc_hd__or4_2
*I *678:A I *D sky130_fd_sc_hd__or2_1
*I *697:Q O *D sky130_fd_sc_hd__dfxtp_1
*CAP
1 *674:A 0.000773486
2 *678:A 0
3 *697:Q 0.00130594
4 *31:24 0.00214557
5 *31:11 0.00267803
6 *674:A *674:C 0
7 *31:11 *684:A 0
8 *31:24 *684:A 0
9 *14:8 *31:11 0
10 *14:8 *31:24 0
11 *17:7 *674:A 0
12 *21:7 *31:11 0
*RES
1 *697:Q *31:11 46.0143 
2 *31:11 *678:A 9.3 
3 *31:11 *31:24 40.0536 
4 *31:24 *674:A 25.4429 
*END

*D_NET *32 0.00698823
*CONN
*I *674:D I *D sky130_fd_sc_hd__or4_2
*I *684:B I *D sky130_fd_sc_hd__or2_1
*I *698:Q O *D sky130_fd_sc_hd__dfxtp_1
*CAP
1 *674:D 0
2 *684:B 0.00134419
3 *698:Q 0.000781289
4 *32:16 0.00271283
5 *32:12 0.00214993
6 *684:B *684:A 0
7 *32:12 *40:8 0
8 *32:12 *40:18 0
9 *32:16 *40:8 0
10 *12:11 *32:12 0
11 *12:11 *32:16 0
12 *22:14 *32:16 0
13 *22:26 *32:12 0
14 *30:14 *32:12 0
*RES
1 *698:Q *32:12 31.4429 
2 *32:12 *32:16 35.5893 
3 *32:16 *684:B 37.3536 
4 *32:12 *674:D 13.8 
*END

*D_NET *33 0.0058116
*CONN
*I *674:C I *D sky130_fd_sc_hd__or4_2
*I *684:A I *D sky130_fd_sc_hd__or2_1
*I *678:B I *D sky130_fd_sc_hd__or2_1
*I *699:Q O *D sky130_fd_sc_hd__dfxtp_1
*CAP
1 *674:C 0.000626109
2 *684:A 0.000831449
3 *678:B 4.0439e-05
4 *699:Q 0
5 *33:9 0.00227969
6 *33:5 0.00203391
7 *674:A *674:C 0
8 *684:B *684:A 0
9 *685:A *684:A 0
10 *10:11 *674:C 0
11 *10:11 *33:9 0
12 *11:8 *684:A 0
13 *17:7 *674:C 0
14 *21:7 *684:A 0
15 *22:14 *674:C 0
16 *22:14 *33:9 0
17 *31:11 *684:A 0
18 *31:24 *684:A 0
*RES
1 *699:Q *33:5 13.8 
2 *33:5 *33:9 35.6607 
3 *33:9 *678:B 10.2464 
4 *33:9 *684:A 35.9071 
5 *33:5 *674:C 27.675 
*END

*D_NET *34 0.00860535
*CONN
*I *682:B2 I *D sky130_fd_sc_hd__a22o_1
*I *694:B I *D sky130_fd_sc_hd__and3_1
*I *683:A1 I *D sky130_fd_sc_hd__a22o_1
*I *700:Q O *D sky130_fd_sc_hd__dfxtp_1
*CAP
1 *682:B2 0
2 *694:B 0.00111659
3 *683:A1 4.53482e-05
4 *700:Q 0.000616051
5 *34:24 0.00225685
6 *34:8 0.00257003
7 *34:7 0.00200048
8 *694:B *40:26 0
9 *34:7 *700:CLK 0
10 *34:8 *676:A2 0
11 *34:8 *39:31 0
12 *34:24 *681:C 0
13 *34:24 *698:CLK 0
14 *34:24 *39:31 0
15 *34:24 *40:18 0
16 *34:24 *40:26 0
17 *682:B1 *34:24 0
18 *683:A2 *683:A1 0
19 *10:11 *34:8 0
20 *10:11 *34:24 0
21 *12:11 *34:7 0
22 *22:43 *34:24 0
23 *23:19 *34:24 0
*RES
1 *700:Q *34:7 26.6571 
2 *34:7 *34:8 31.3929 
3 *34:8 *683:A1 14.7464 
4 *34:8 *34:24 28.5893 
5 *34:24 *694:B 32.8536 
6 *34:24 *682:B2 9.3 
*END

*D_NET *35 0.00458526
*CONN
*I *676:B1 I *D sky130_fd_sc_hd__a21o_1
*I *686:A I *D sky130_fd_sc_hd__clkbuf_1
*I *701:Q O *D sky130_fd_sc_hd__dfxtp_1
*CAP
1 *676:B1 0.000889973
2 *686:A 0.00137699
3 *701:Q 2.56688e-05
4 *35:5 0.00229263
5 *676:B1 *676:A2 0
6 *676:B1 *698:CLK 0
7 *676:B1 *700:CLK 0
8 *676:B1 *37:52 0
9 *686:A *681:C 0
10 *686:A *683:B2 0
11 *686:A *38:31 0
12 *35:5 *37:52 0
13 *22:43 *686:A 0
14 *25:6 *676:B1 0
*RES
1 *701:Q *35:5 9.83571 
2 *35:5 *686:A 49.175 
3 *35:5 *676:B1 38.1393 
*END

*D_NET *36 0.00917246
*CONN
*I *683:B2 I *D sky130_fd_sc_hd__a22o_1
*I *692:A I *D sky130_fd_sc_hd__and2_1
*I *688:B I *D sky130_fd_sc_hd__and3_1
*I *702:Q O *D sky130_fd_sc_hd__dfxtp_1
*CAP
1 *683:B2 0.00150643
2 *692:A 0.000631996
3 *688:B 0.00122441
4 *702:Q 0.00043322
5 *36:25 0.00292859
6 *36:8 0.00244781
7 *688:B *688:A 0
8 *688:B *37:8 0
9 *688:B *38:19 0
10 *36:25 *38:19 0
11 *683:B1 *683:B2 0
12 *686:A *683:B2 0
13 *689:A *688:B 0
14 *690:B *683:B2 0
15 *692:B *692:A 0
16 *14:8 *683:B2 0
17 *14:8 *692:A 0
18 *15:5 *683:B2 0
19 *16:6 *36:8 0
20 *30:8 *688:B 0
21 *30:8 *36:8 0
*RES
1 *702:Q *36:8 28.1393 
2 *36:8 *688:B 44.1036 
3 *36:8 *36:25 21.0536 
4 *36:25 *692:A 28.0321 
5 *36:25 *683:B2 47.175 
*END

*D_NET *37 0.0129879
*CONN
*I *698:CLK I *D sky130_fd_sc_hd__dfxtp_1
*I *700:CLK I *D sky130_fd_sc_hd__dfxtp_1
*I *699:CLK I *D sky130_fd_sc_hd__dfxtp_1
*I *701:CLK I *D sky130_fd_sc_hd__dfxtp_1
*I *702:CLK I *D sky130_fd_sc_hd__dfxtp_1
*I *696:CLK I *D sky130_fd_sc_hd__dfxtp_1
*I *697:CLK I *D sky130_fd_sc_hd__dfxtp_1
*I *703:X O *D sky130_fd_sc_hd__buf_2
*CAP
1 *698:CLK 0.00111705
2 *700:CLK 0.000898124
3 *699:CLK 0
4 *701:CLK 0
5 *702:CLK 0.000534338
6 *696:CLK 8.42372e-05
7 *697:CLK 6.58832e-05
8 *703:X 0.00103642
9 *37:60 0.00203785
10 *37:52 0.00053883
11 *37:46 0.00142676
12 *37:19 0.000919898
13 *37:12 0.00184279
14 *37:8 0.00248569
15 *698:CLK *676:A2 0
16 *698:CLK *39:31 0
17 *700:CLK *676:A2 0
18 *676:B1 *698:CLK 0
19 *676:B1 *700:CLK 0
20 *676:B1 *37:52 0
21 *688:B *37:8 0
22 *699:D *37:52 0
23 *701:D *37:46 0
24 *702:D *702:CLK 0
25 *12:11 *700:CLK 0
26 *15:8 *37:8 0
27 *15:8 *37:12 0
28 *15:8 *37:19 0
29 *18:24 *37:8 0
30 *25:6 *698:CLK 0
31 *30:8 *37:8 0
32 *30:8 *37:12 0
33 *30:8 *37:19 0
34 *34:7 *700:CLK 0
35 *34:24 *698:CLK 0
36 *35:5 *37:52 0
*RES
1 *703:X *37:8 35.9429 
2 *37:8 *37:12 16.7679 
3 *37:12 *37:19 26.2321 
4 *37:19 *697:CLK 10.675 
5 *37:19 *696:CLK 20.2464 
6 *37:12 *702:CLK 20.5143 
7 *37:8 *37:46 23.5357 
8 *37:46 *701:CLK 9.3 
9 *37:46 *37:52 10.8036 
10 *37:52 *699:CLK 9.3 
11 *37:52 *37:60 5.03571 
12 *37:60 *700:CLK 33.3179 
13 *37:60 *698:CLK 39.1571 
*END

*D_NET *38 0.0130384
*CONN
*I *680:A_N I *D sky130_fd_sc_hd__and3b_1
*I *681:C I *D sky130_fd_sc_hd__and3b_1
*I *676:A1 I *D sky130_fd_sc_hd__a21o_1
*I *675:A I *D sky130_fd_sc_hd__nor2_1
*I *704:X O *D sky130_fd_sc_hd__clkbuf_2
*CAP
1 *680:A_N 0.000750812
2 *681:C 0.000937079
3 *676:A1 0.000684549
4 *675:A 0
5 *704:X 0.00138224
6 *38:31 0.00231717
7 *38:19 0.00334616
8 *38:9 0.00213521
9 *38:8 0.00148513
10 *680:A_N *680:B 0
11 *686:A *681:C 0
12 *686:A *38:31 0
13 *688:B *38:19 0
14 *689:A *38:8 0
15 *691:A *681:C 0
16 *691:A *38:31 0
17 *692:B *676:A1 0
18 *18:8 *38:9 0
19 *19:9 *676:A1 0
20 *19:9 *38:31 0
21 *25:6 *676:A1 0
22 *25:6 *681:C 0
23 *25:6 *38:31 0
24 *30:14 *680:A_N 0
25 *30:14 *681:C 0
26 *34:24 *681:C 0
27 *36:25 *38:19 0
*RES
1 *704:X *38:8 49.6929 
2 *38:8 *38:9 2.17857 
3 *38:9 *675:A 9.3 
4 *38:9 *38:19 46.9464 
5 *38:19 *676:A1 29.1571 
6 *38:19 *38:31 18.8929 
7 *38:31 *681:C 38.8357 
8 *38:31 *680:A_N 25.0321 
*END

*D_NET *39 0.0121648
*CONN
*I *680:B I *D sky130_fd_sc_hd__and3b_1
*I *676:A2 I *D sky130_fd_sc_hd__a21o_1
*I *681:A_N I *D sky130_fd_sc_hd__and3b_1
*I *675:B I *D sky130_fd_sc_hd__nor2_1
*I *705:X O *D sky130_fd_sc_hd__clkbuf_2
*CAP
1 *680:B 0.000592093
2 *676:A2 0.00118437
3 *681:A_N 0
4 *675:B 0.00130715
5 *705:X 0.000224598
6 *39:31 0.00279889
7 *39:23 0.00102242
8 *39:21 0.00175177
9 *39:8 0.00328352
10 *675:B *688:A 0
11 *39:21 *43:8 0
12 *39:31 *40:18 0
13 *676:B1 *676:A2 0
14 *680:A_N *680:B 0
15 *689:A *675:B 0
16 *694:C *675:B 0
17 *698:CLK *676:A2 0
18 *698:CLK *39:31 0
19 *700:CLK *676:A2 0
20 *10:11 *676:A2 0
21 *18:8 *675:B 0
22 *18:17 *675:B 0
23 *22:7 *680:B 0
24 *22:43 *39:21 0
25 *29:8 *675:B 0
26 *30:14 *680:B 0
27 *34:8 *676:A2 0
28 *34:8 *39:31 0
29 *34:24 *39:31 0
*RES
1 *705:X *39:8 18.8179 
2 *39:8 *675:B 43.3714 
3 *39:8 *39:21 45.7679 
4 *39:21 *39:23 4.5 
5 *39:23 *681:A_N 9.3 
6 *39:23 *39:31 26.9464 
7 *39:31 *676:A2 40.6393 
8 *39:31 *680:B 26.1571 
*END

*D_NET *40 0.0130277
*CONN
*I *681:B I *D sky130_fd_sc_hd__and3b_1
*I *694:A I *D sky130_fd_sc_hd__and3_1
*I *688:A I *D sky130_fd_sc_hd__and3_1
*I *680:C I *D sky130_fd_sc_hd__and3b_1
*I *706:X O *D sky130_fd_sc_hd__clkbuf_2
*CAP
1 *681:B 0
2 *694:A 0
3 *688:A 0.00121502
4 *680:C 0
5 *706:X 0.000183104
6 *40:26 0.00276187
7 *40:18 0.00318283
8 *40:8 0.00356886
9 *40:7 0.00211598
10 *40:8 *707:A 0
11 *40:18 *707:A 0
12 *675:B *688:A 0
13 *688:B *688:A 0
14 *694:B *40:26 0
15 *694:C *688:A 0
16 *10:11 *40:18 0
17 *22:43 *40:26 0
18 *29:8 *688:A 0
19 *30:14 *40:8 0
20 *32:12 *40:8 0
21 *32:12 *40:18 0
22 *32:16 *40:8 0
23 *34:24 *40:18 0
24 *34:24 *40:26 0
25 *39:31 *40:18 0
*RES
1 *706:X *40:7 17.6214 
2 *40:7 *40:8 43.8393 
3 *40:8 *680:C 13.8 
4 *40:8 *40:18 39.7857 
5 *40:18 *40:26 41.3929 
6 *40:26 *688:A 45.3714 
7 *40:26 *694:A 9.3 
8 *40:18 *681:B 9.3 
*END

*D_NET *41 0.00557184
*CONN
*I *707:A I *D sky130_fd_sc_hd__buf_2
*I *685:X O *D sky130_fd_sc_hd__clkbuf_1
*CAP
1 *707:A 0.00126462
2 *685:X 0.0015213
3 *41:7 0.00278592
4 *40:8 *707:A 0
5 *40:18 *707:A 0
*RES
1 *685:X *41:7 45.55 
2 *41:7 *707:A 42.4607 
*END

*D_NET *42 0.00225922
*CONN
*I *708:A I *D sky130_fd_sc_hd__buf_2
*I *687:X O *D sky130_fd_sc_hd__clkbuf_1
*CAP
1 *708:A 0
2 *687:X 0.00112961
3 *42:11 0.00112961
4 change[1] *42:11 0
5 *687:A *42:11 0
*RES
1 *687:X *42:11 42.2286 
2 *42:11 *708:A 9.3 
*END

*D_NET *43 0.00400613
*CONN
*I *709:A I *D sky130_fd_sc_hd__buf_2
*I *679:X O *D sky130_fd_sc_hd__clkbuf_1
*CAP
1 *709:A 0.00030118
2 *679:X 0.00170188
3 *43:8 0.00200306
4 out *709:A 0
5 *22:43 *43:8 0
6 *39:21 *43:8 0
*RES
1 *679:X *43:8 49.8 
2 *43:8 *709:A 20.0857 
*END
